*Heading
** Job name: Job-1-8 Model name: Model-8
** Generated by: Abaqus/CAE Learning Edition 2022
*Preprint, echo=NO, model=NO, history=NO, contact=NO
**
** PARTS
**
*Part, name=Merge-1
*Node
      1,          12.,           6.,           3.
      2,          12.,           9.,           3.
      3,          12.,           9.,           0.
      4,          12.,           6.,           0.
      5,          15.,           9.,           3.
      6,          15.,           9.,           0.
      7,          15.,           6.,           0.
      8,          15.,           6.,           3.
      9,          12.,           6.,           6.
     10,          12.,           9.,           6.
     11,          15.,           9.,           6.
     12,          15.,           6.,           6.
     13,          12.,          12.,           3.
     14,          12.,          12.,           0.
     15,          15.,          12.,           3.
     16,          15.,          12.,           0.
     17,          12.,          12.,           6.
     18,          15.,          12.,           6.
     19,          12.,           9.,           9.
     20,          12.,          12.,           9.
** ... 102 like lines cut
*Element, type=C3D8R
1, 8, 5, 6, 7, 1, 2, 3, 4
2, 12, 11,  5,  8,  9, 10,  2,  1
3,  5, 15, 16,  6,  2, 13, 14,  3
4, 11, 18, 15,  5, 10, 17, 13,  2
5, 22, 21, 18, 11, 19, 20, 17, 10
6, 15, 25, 26, 16, 13, 23, 24, 14
7, 18, 28, 25, 15, 17, 27, 23, 13
8, 21, 30, 28, 18, 20, 29, 27, 17
 9, 34, 33, 30, 21, 31, 32, 29, 20
10, 38, 37, 33, 34, 35, 36, 32, 31
11,  9, 41, 42,  1, 12, 39, 40,  8
12, 46, 45, 41,  9, 43, 44, 39, 12
13, 52, 45, 41, 51, 47, 48, 49, 50
14, 45, 46,  9, 41, 48, 53, 54, 49
15, 10, 17, 13,  2, 55, 56, 57, 58
16, 19, 20, 17, 10, 59, 60, 56, 55
17, 13, 23, 24, 14, 57, 61, 62, 63
18, 17, 27, 23, 13, 56, 64, 61, 57
19, 72, 69, 70, 71, 65, 66, 67, 68
20, 76, 75, 69, 72, 73, 74, 66, 65
** ... 14 like lines cut
*Nset, nset=_PickedSet3, internal
  86,  87, 103, 104, 107, 108, 109, 110
*Elset, elset=_PickedSet3, internal
 30,
*Nset, nset=_PickedSet5, internal
  85,  88,  91,  92, 111, 112, 113, 114
*Elset, elset=_PickedSet5, internal
 31,
*Nset, nset=_PickedSet7, internal
  88,  92,  96,  98, 112, 113, 115, 116
*Elset, elset=_PickedSet7, internal
 32,
*Nset, nset=_PickedSet9, internal
  65,  66,  73,  74, 117, 118, 119, 120
*Elset, elset=_PickedSet9, internal
 33,
*Nset, nset=_PickedSet11, internal
  66,  74,  77,  78, 118, 119, 121, 122
*Elset, elset=_PickedSet11, internal
 34,
*Nset, nset=_PickedSet13, internal
  83,  84,  86,  87, 103, 104, 105, 106
*Elset, elset=_PickedSet13, internal
 29,
*Nset, nset=_PickedSet15, internal, generate
 81,  88,   1
*Elset, elset=_PickedSet15, internal
 23,
*Nset, nset=_PickedSet17, internal
 81, 82, 85, 88, 89, 90, 91, 92
*Elset, elset=_PickedSet17, internal
 24,
*Nset, nset=_PickedSet19, internal
 81, 84, 87, 88, 93, 94, 95, 96
*Elset, elset=_PickedSet19, internal
 25,
*Nset, nset=_PickedSet21, internal
 81, 88, 89, 92, 93, 96, 97, 98
*Elset, elset=_PickedSet21, internal
 26,
*Nset, nset=_PickedSet23, internal
  65,  72,  73,  76,  94,  95,  99, 100
*Elset, elset=_PickedSet23, internal
 27,
*Nset, nset=_PickedSet25, internal
  73,  76,  93,  94,  95,  96, 101, 102
*Elset, elset=_PickedSet25, internal
 28,
*Nset, nset=_PickedSet27, internal, generate
 65,  72,   1
*Elset, elset=_PickedSet27, internal
 19,
*Nset, nset=_PickedSet29, internal
 65, 66, 69, 72, 73, 74, 75, 76
*Elset, elset=_PickedSet29, internal
 20,
*Nset, nset=_PickedSet31, internal
 66, 69, 74, 75, 77, 78, 79, 80
*Elset, elset=_PickedSet31, internal
 21,
*Nset, nset=_PickedSet33, internal
 55, 56, 59, 60, 69, 72, 75, 76
*Elset, elset=_PickedSet33, internal
 22,
*Nset, nset=_PickedSet35, internal
 41, 45, 47, 48, 49, 50, 51, 52
*Elset, elset=_PickedSet35, internal
 13,
*Nset, nset=_PickedSet37, internal
  9, 41, 45, 46, 48, 49, 53, 54
*Elset, elset=_PickedSet37, internal
 14,
*Nset, nset=_PickedSet39, internal
  2, 10, 13, 17, 55, 56, 57, 58
*Elset, elset=_PickedSet39, internal
 15,
*Nset, nset=_PickedSet41, internal
 10, 17, 19, 20, 55, 56, 59, 60
*Elset, elset=_PickedSet41, internal
 16,
*Nset, nset=_PickedSet43, internal
 13, 14, 23, 24, 57, 61, 62, 63
*Elset, elset=_PickedSet43, internal
 17,
*Nset, nset=_PickedSet45, internal
 13, 17, 23, 27, 56, 57, 61, 64
*Elset, elset=_PickedSet45, internal
 18,
*Nset, nset=_PickedSet47, internal
  1,  8,  9, 12, 39, 40, 41, 42
*Elset, elset=_PickedSet47, internal
 11,
*Nset, nset=_PickedSet49, internal
  9, 12, 39, 41, 43, 44, 45, 46
*Elset, elset=_PickedSet49, internal
 12,
*Nset, nset=_PickedSet51, internal, generate
 1,  8,  1
*Elset, elset=_PickedSet51, internal
 1,
*Nset, nset=_PickedSet53, internal
  1,  2,  5,  8,  9, 10, 11, 12
*Elset, elset=_PickedSet53, internal
 2,
*Nset, nset=_PickedSet55, internal
  2,  3,  5,  6, 13, 14, 15, 16
*Elset, elset=_PickedSet55, internal
 3,
*Nset, nset=_PickedSet57, internal
  2,  5, 10, 11, 13, 15, 17, 18
*Elset, elset=_PickedSet57, internal
 4,
*Nset, nset=_PickedSet59, internal
 10, 11, 17, 18, 19, 20, 21, 22
*Elset, elset=_PickedSet59, internal
 5,
*Nset, nset=_PickedSet61, internal
 13, 14, 15, 16, 23, 24, 25, 26
*Elset, elset=_PickedSet61, internal
 6,
*Nset, nset=_PickedSet63, internal
 13, 15, 17, 18, 23, 25, 27, 28
*Elset, elset=_PickedSet63, internal
 7,
*Nset, nset=_PickedSet65, internal
 17, 18, 20, 21, 27, 28, 29, 30
*Elset, elset=_PickedSet65, internal
 8,
*Nset, nset=_PickedSet67, internal
 20, 21, 29, 30, 31, 32, 33, 34
*Elset, elset=_PickedSet67, internal
 9,
*Nset, nset=_PickedSet69, internal, generate
 31,  38,   1
*Elset, elset=_PickedSet69, internal
 10,
*Orientation, name=Ori-25
1., 0., 0., 0., 1., 0.
1, 0.
** Section: Section-1
*Solid Section, elset=_PickedSet51, orientation=Ori-25, material=Material-1
,
*Orientation, name=Ori-26
1., 0., 0., 0., 1., 0.
1, 0.
** Section: Section-1
*Solid Section, elset=_PickedSet53, orientation=Ori-26, material=Material-1
,
*Orientation, name=Ori-27
1., 0., 0., 0., 1., 0.
1, 0.
** Section: Section-1
*Solid Section, elset=_PickedSet55, orientation=Ori-27, material=Material-1
,
*Orientation, name=Ori-28
1., 0., 0., 0., 1., 0.
1, 0.
** Section: Section-1
*Solid Section, elset=_PickedSet57, orientation=Ori-28, material=Material-1
,
*Orientation, name=Ori-29
1., 0., 0., 0., 1., 0.
1, 0.
** Section: Section-1
*Solid Section, elset=_PickedSet59, orientation=Ori-29, material=Material-1
,
*Orientation, name=Ori-30
1., 0., 0., 0., 1., 0.
1, 0.
** Section: Section-1
*Solid Section, elset=_PickedSet61, orientation=Ori-30, material=Material-1
,
*Orientation, name=Ori-31
1., 0., 0., 0., 1., 0.
1, 0.
** Section: Section-1
*Solid Section, elset=_PickedSet63, orientation=Ori-31, material=Material-1
,
*Orientation, name=Ori-32
1., 0., 0., 0., 1., 0.
1, 0.
** Section: Section-1
*Solid Section, elset=_PickedSet65, orientation=Ori-32, material=Material-1
,
*Orientation, name=Ori-33
1., 0., 0., 0., 1., 0.
1, 0.
** Section: Section-1
*Solid Section, elset=_PickedSet67, orientation=Ori-33, material=Material-1
,
*Orientation, name=Ori-34
1., 0., 0., 0., 1., 0.
1, 0.
** Section: Section-1
*Solid Section, elset=_PickedSet69, orientation=Ori-34, material=Material-1
,
*Orientation, name=Ori-23
1., 0., 0., 0., 1., 0.
1, 0.
** Section: Section-1
*Solid Section, elset=_PickedSet47, orientation=Ori-23, material=Material-1
,
*Orientation, name=Ori-24
1., 0., 0., 0., 1., 0.
1, 0.
** Section: Section-1
*Solid Section, elset=_PickedSet49, orientation=Ori-24, material=Material-1
,
*Orientation, name=Ori-17
1., 0., 0., 0., 1., 0.
1, 0.
** Section: Section-1
*Solid Section, elset=_PickedSet35, orientation=Ori-17, material=Material-1
,
*Orientation, name=Ori-18
1., 0., 0., 0., 1., 0.
1, 0.
** Section: Section-1
*Solid Section, elset=_PickedSet37, orientation=Ori-18, material=Material-1
,
*Orientation, name=Ori-19
1., 0., 0., 0., 1., 0.
1, 0.
** Section: Section-1
*Solid Section, elset=_PickedSet39, orientation=Ori-19, material=Material-1
,
*Orientation, name=Ori-20
1., 0., 0., 0., 1., 0.
1, 0.
** Section: Section-1
*Solid Section, elset=_PickedSet41, orientation=Ori-20, material=Material-1
,
*Orientation, name=Ori-21
1., 0., 0., 0., 1., 0.
1, 0.
** Section: Section-1
*Solid Section, elset=_PickedSet43, orientation=Ori-21, material=Material-1
,
*Orientation, name=Ori-22
1., 0., 0., 0., 1., 0.
1, 0.
** Section: Section-1
*Solid Section, elset=_PickedSet45, orientation=Ori-22, material=Material-1
,
*Orientation, name=Ori-13
1., 0., 0., 0., 1., 0.
1, 0.
** Section: Section-1
*Solid Section, elset=_PickedSet27, orientation=Ori-13, material=Material-1
,
*Orientation, name=Ori-14
1., 0., 0., 0., 1., 0.
1, 0.
** Section: Section-1
*Solid Section, elset=_PickedSet29, orientation=Ori-14, material=Material-1
,
*Orientation, name=Ori-15
1., 0., 0., 0., 1., 0.
1, 0.
** Section: Section-1
*Solid Section, elset=_PickedSet31, orientation=Ori-15, material=Material-1
,
*Orientation, name=Ori-16
1., 0., 0., 0., 1., 0.
1, 0.
** Section: Section-1
*Solid Section, elset=_PickedSet33, orientation=Ori-16, material=Material-1
,
*Orientation, name=Ori-7
1., 0., 0., 0., 1., 0.
1, 0.
** Section: Section-1
*Solid Section, elset=_PickedSet15, orientation=Ori-7, material=Material-1
,
*Orientation, name=Ori-8
1., 0., 0., 0., 1., 0.
1, 0.
** Section: Section-1
*Solid Section, elset=_PickedSet17, orientation=Ori-8, material=Material-1
,
*Orientation, name=Ori-9
1., 0., 0., 0., 1., 0.
1, 0.
** Section: Section-1
*Solid Section, elset=_PickedSet19, orientation=Ori-9, material=Material-1
,
*Orientation, name=Ori-10
1., 0., 0., 0., 1., 0.
1, 0.
** Section: Section-1
*Solid Section, elset=_PickedSet21, orientation=Ori-10, material=Material-1
,
*Orientation, name=Ori-11
1., 0., 0., 0., 1., 0.
1, 0.
** Section: Section-1
*Solid Section, elset=_PickedSet23, orientation=Ori-11, material=Material-1
,
*Orientation, name=Ori-12
1., 0., 0., 0., 1., 0.
1, 0.
** Section: Section-1
*Solid Section, elset=_PickedSet25, orientation=Ori-12, material=Material-1
,
*Orientation, name=Ori-6
1., 0., 0., 0., 1., 0.
1, 0.
** Section: Section-1
*Solid Section, elset=_PickedSet13, orientation=Ori-6, material=Material-1
,
*Orientation, name=Ori-1
1., 0., 0., 0., 1., 0.
1, 0.
** Section: Section-1
*Solid Section, elset=_PickedSet3, orientation=Ori-1, material=Material-1
,
*Orientation, name=Ori-2
1., 0., 0., 0., 1., 0.
1, 0.
** Section: Section-1
*Solid Section, elset=_PickedSet5, orientation=Ori-2, material=Material-1
,
*Orientation, name=Ori-3
1., 0., 0., 0., 1., 0.
1, 0.
** Section: Section-1
*Solid Section, elset=_PickedSet7, orientation=Ori-3, material=Material-1
,
*Orientation, name=Ori-4
1., 0., 0., 0., 1., 0.
1, 0.
** Section: Section-1
*Solid Section, elset=_PickedSet9, orientation=Ori-4, material=Material-1
,
*Orientation, name=Ori-5
1., 0., 0., 0., 1., 0.
1, 0.
** Section: Section-1
*Solid Section, elset=_PickedSet11, orientation=Ori-5, material=Material-1
,
*End Part
**  
**
** ASSEMBLY
**
*Assembly, name=Assembly
**  
*Instance, name=Merge-1-1, part=Merge-1
*End Instance
**  
*Node
      1,          7.5,         16.5,          7.5
*Node
      2,         16.5,          7.5,          7.5
*Node
      3,          7.5,          7.5,         16.5
*Nset, nset=FX, instance=Merge-1-1
  5,  6,  7,  8, 11, 12, 15, 16, 18, 21, 22, 25, 26, 28, 30, 33
 34, 37, 38, 39, 40, 43, 44
*Elset, elset=FX, instance=Merge-1-1, generate
  1,  12,   1
*Nset, nset=FX0, instance=Merge-1-1, generate
 107,  122,    1
*Elset, elset=FX0, instance=Merge-1-1, generate
 30,  34,   1
*Nset, nset=FY, instance=Merge-1-1
  23,  24,  25,  26,  27,  28,  29,  30,  32,  33,  36,  37,  61,  62,  64,  77
  78,  79,  80, 121, 122
*Elset, elset=FY, instance=Merge-1-1
  6,  7,  8,  9, 10, 17, 18, 21, 34
*Nset, nset=FY0, instance=Merge-1-1
  47,  50,  51,  52,  82,  83,  85,  86,  90,  91, 104, 106, 107, 110, 111, 114
*Elset, elset=FY0, instance=Merge-1-1
 13, 23, 24, 29, 30, 31
*Nset, nset=FZ, instance=Merge-1-1
  35,  36,  37,  38,  89,  90,  91,  92,  97,  98, 111, 112, 115
*Elset, elset=FZ, instance=Merge-1-1
 10, 24, 26, 31, 32
*Nset, nset=FZ0, instance=Merge-1-1
  3,  4,  6,  7, 14, 16, 24, 26, 62, 63
*Elset, elset=FZ0, instance=Merge-1-1
  1,  3,  6, 17
*Nset, nset=RP1
 2,
*Nset, nset=RP2
 1,
*Nset, nset=RP3
 3,
*Elset, elset=_FX_S2, internal, instance=Merge-1-1
 11, 12
*Elset, elset=_FX_S1, internal, instance=Merge-1-1, generate
  1,  10,   1
*Surface, type=ELEMENT, name=FX
_FX_S2, S2
_FX_S1, S1
*Elset, elset=_FY_S4, internal, instance=Merge-1-1
  6,  7,  8,  9, 10, 17, 18, 21, 34
*Surface, type=ELEMENT, name=FY
_FY_S4, S4
*Elset, elset=_FZ_S3, internal, instance=Merge-1-1
 10, 24, 26, 31, 32
*Surface, type=ELEMENT, name=FZ
_FZ_S3, S3
*Elset, elset=_Surf-1_S2, internal, instance=Merge-1-1
  1,  2,  3,  4,  5,  6,  7,  8,  9, 10, 11, 12, 13, 14, 15, 16
 17, 18, 19, 20, 21, 23, 24, 25, 26, 27, 28, 29, 30, 31, 32, 33
 34,
*Elset, elset=_Surf-1_S4, internal, instance=Merge-1-1
  1,  2,  3,  4,  5,  6,  7,  8,  9, 10, 11, 12, 13, 14, 15, 16
 17, 18, 19, 20, 21, 22, 23, 24, 27, 29, 30, 31, 32, 33, 34
*Elset, elset=_Surf-1_S3, internal, instance=Merge-1-1
  1,  2,  3,  4,  5,  6,  7,  8,  9, 10, 11, 12, 13, 14, 15, 16
 17, 18, 19, 20, 21, 22, 23, 24, 25, 26, 27, 28, 30, 31, 32, 33
 34,
*Elset, elset=_Surf-1_S5, internal, instance=Merge-1-1
  1,  3,  6, 11, 13, 14, 15, 17, 19, 21, 22, 23, 25, 27, 29, 30
 31, 32, 33, 34
*Elset, elset=_Surf-1_S6, internal, instance=Merge-1-1
  1,  2,  5,  9, 10, 12, 13, 15, 16, 17, 19, 20, 22, 23, 24, 25
 26, 28, 29, 30, 31, 33
*Elset, elset=_Surf-1_S1, internal, instance=Merge-1-1
  1,  2,  3,  4,  5,  6,  7,  8,  9, 10, 11, 12, 13, 19, 20, 21
 23, 24, 25, 26, 27, 28, 29
*Surface, type=ELEMENT, name=Surf-1
_Surf-1_S2, S2
_Surf-1_S4, S4
_Surf-1_S6, S6
_Surf-1_S3, S3
_Surf-1_S5, S5
_Surf-1_S1, S1
** Constraint: Constraint-1
*Coupling, constraint name=Constraint-1, ref node=RP2, surface=FY
*Kinematic
*End Assembly
** 
** MATERIALS
** 
*Material, name=Material-1
*Elastic, type=ENGINEERING CONSTANTS
1500.,1200.,1500., 0.35, 0.35, 0.35, 450., 550.
 450.,
** 
** INTERACTION PROPERTIES
** 
*Surface Interaction, name=IntProp-1
1.,
*Surface Behavior, pressure-overclosure=HARD
** 
** INTERACTIONS
** 
** Interaction: Int-1
*Contact Pair, interaction=IntProp-1, type=SURFACE TO SURFACE, tracking=STATE
Surf-1,
** ----------------------------------------------------------------
** 
** STEP: Step-1
** 
*Step, name=Step-1, nlgeom=NO, inc=10000
*Static
0.0001, 1., 1e-12, 0.1
** 
** BOUNDARY CONDITIONS
** 
** Name: BC-1 Type: Symmetry/Antisymmetry/Encastre
*Boundary
FY0, YSYMM
** Name: BC-2 Type: Symmetry/Antisymmetry/Encastre
*Boundary
FZ0, ZSYMM
** Name: BC-3 Type: Symmetry/Antisymmetry/Encastre
*Boundary
FX0, XSYMM
** Name: BC-4 Type: Displacement/Rotation
*Boundary
RP2, 1, 1
RP2, 2, 2, -0.075
RP2, 3, 3
RP2, 4, 4
RP2, 5, 5
RP2, 6, 6
** 
** OUTPUT REQUESTS
** 
*Restart, write, frequency=0
** 
** FIELD OUTPUT: F-Output-1
** 
*Output, field
*Node Output
RF, U
*Element Output, directions=YES
IVOL, MISESMAX, S
** 
** HISTORY OUTPUT: RP2_H-Output
** 
*Output, history
*Node Output, nset=RP2
RF1, RF2, RF3, U1, U2, U3
** 
** HISTORY OUTPUT: H-Output-1
** 
*Output, history, variable=PRESELECT
*End Step
