 Abaqus/Standard Learning Edition 2022                  DATE 01-1-2023 TIME 20:54:38
 SUMMARY OF JOB INFORMATION:
 STEP  INC ATT SEVERE EQUIL TOTAL  TOTAL      STEP       INC OF       DOF    IF
               DISCON ITERS ITERS  TIME/    TIME/LPF    TIME/LPF    MONITOR RIKS
               ITERS               FREQ
   1     1   1     0     2     2  0.000100   0.000100   0.0001000 
   1     2   1     0     1     1  0.000200   0.000200   0.0001000 
   1     3   1     0     1     1  0.000350   0.000350   0.0001500 
   1     4   1     0     1     1  0.000575   0.000575   0.0002250 
   1     5   1     0     1     1  0.000913   0.000913   0.0003375 
   1     6   1     0     1     1  0.00142    0.00142    0.0005062 
   1     7   1     0     1     1  0.00218    0.00218    0.0007594 
   1     8   1     0     1     1  0.00332    0.00332    0.001139  
   1     9   1     0     1     1  0.00503    0.00503    0.001709  
   1    10   1     0     1     1  0.00759    0.00759    0.002563  
   1    11   1     0     1     1  0.0114     0.0114     0.003844  
   1    12   1     0     1     1  0.0172     0.0172     0.005767  
   1    13   1     0     1     1  0.0258     0.0258     0.008650  
   1    14   1     0     1     1  0.0388     0.0388     0.01297   
   1    15   1     0     1     1  0.0583     0.0583     0.01946   
   1    16   1     0     1     1  0.0875     0.0875     0.02919   
   1    17   1     0     1     1  0.131      0.131      0.04379   
   1    18   1     0     1     1  0.197      0.197      0.06568   
   1    19   1     0     1     1  0.295      0.295      0.09853   
   1    20   1     0     1     1  0.395      0.395      0.1000    
   1    21   1     0     1     1  0.495      0.495      0.1000    
   1    22   1     0     1     1  0.595      0.595      0.1000    
   1    23   1     0     1     1  0.695      0.695      0.1000    
   1    24   1     0     1     1  0.795      0.795      0.1000    
   1    25   1     0     1     1  0.895      0.895      0.1000    
   1    26   1     0     1     1  0.995      0.995      0.1000    
   1    27   1     0     1     1  1.00       1.00       0.004522  
                          
 THE ANALYSIS HAS COMPLETED SUCCESSFULLY
